/*--------------------------------*- C++ -*----------------------------------*\
| =========                 |                                                 |
| \\      /  F ield         | OpenFOAM: The Open Source CFD Toolbox           |
|  \\    /   O peration     | Version:  1.5                                   |
|   \\  /    A nd           | Web:      http://www.OpenFOAM.org               |
|    \\/     M anipulation  |                                                 |
\*---------------------------------------------------------------------------*/
FoamFile
{
    version     2.0;
    format      ascii;
    class       dictionary;
    object      blockMeshDict;
}
// * * * * * * * * * * * * * * * * * * * * * * * * * * * * * * * * * * * * * //

convertToMeters 1;

vertices        
(
    (4 0 0)
    (4 0 0.1)
    (8 0 0)
    (8 0 0.1)   
    (8 4 0)
    (8 4 0.1)
    (4 4 0)
    (4 4 0.1)
);

blocks          
(
    hex (0 2 4 6 1 3 5 7) (46 1 1) simpleGrading (1 1 1)
);

edges           
(
);

patches         
(
    patch front
    (
        (0 1 6 7)
    )
    patch back
    (
        (2 3 4 5)
    )
    empty right
    (
        (0 1 2 3)
    )
    empty left
    (
        (4 5 6 7)
    )
    empty TopAndBot 
    (
        (0 2 4 6)
        (1 3 5 7)
    )
);

mergePatchPairs 
(
);

// ************************************************************************* //
