/*--------------------------------*- C++ -*----------------------------------*\
| =========                 |                                                 |
| \\      /  F ield         | OpenFOAM: The Open Source CFD Toolbox           |
|  \\    /   O peration     | Version:  4.1                                   |
|   \\  /    A nd           | Web:      www.OpenFOAM.org                      |
|    \\/     M anipulation  |                                                 |
\*---------------------------------------------------------------------------*/
FoamFile
{
    version     2.0;
    format      ascii;
    class       polyBoundaryMesh;
    location    "constant/polyMesh";
    object      boundary;
}
// * * * * * * * * * * * * * * * * * * * * * * * * * * * * * * * * * * * * * //

5
(
    front
    {
        type            patch;
        nFaces          1;
        startFace       45;
    }
    back
    {
        type            patch;
        nFaces          1;
        startFace       46;
    }
    right
    {
        type            empty;
        inGroups        1(empty);
        nFaces          46;
        startFace       47;
    }
    left
    {
        type            empty;
        inGroups        1(empty);
        nFaces          46;
        startFace       93;
    }
    TopAndBot
    {
        type            empty;
        inGroups        1(empty);
        nFaces          92;
        startFace       139;
    }
)

// ************************************************************************* //
